$$ HM_OUTPUT_DECK created 12:56:43 04-05-2026 by HyperMesh Version 2022.0.0.33
$$ Ls-dyna Input Deck Generated by HyperMesh Version  : 2022.0.0.33
$$ Generated using HyperMesh-Ls-dyna 971_R12.0 Template Version : 2022.0.0.33
*KEYWORD
*NODE
$    NID               X               Y               Z      TC      RC
       1            25.0           -25.0             0.0                
       2            25.0 -21.15384615385             0.0                
       3            25.0 -17.30769230769             0.0                
       4            25.0 -13.46153846154             0.0                
       5            25.0 -9.615384615385             0.0                
       6            25.0 -5.769230769231             0.0                
       7            25.0 -1.923076923077             0.0                
       8            25.0 1.9230769230769             0.0                
       9            25.0 5.7692307692308             0.0                
      10            25.0 9.6153846153846             0.0                
      11            25.0 13.461538461538             0.0                
      12            25.0 17.307692307692             0.0                
      13            25.0 21.153846153846             0.0                
      14            25.0            25.0             0.0                
      15 21.153846153846            25.0             0.0                
      16 17.307692307692            25.0             0.0                
      17 13.461538461538            25.0             0.0                
      18 9.6153846153846            25.0             0.0                
      19 5.7692307692308            25.0             0.0                
      20 1.9230769230769            25.0             0.0                
$ ... 2185 like lines cut
*ELEMENT_SOLID
$    EID     PID
$     N1      N2      N3      N4
    2221       1
     244     309     310    1122    1122    1122    1122    1122
    2222       1
     245     309     244     653     653     653     653     653
    2223       1
     858     802     801    1133    1133    1133    1133    1133
    2224       1
     308     309     245    1121    1121    1121    1121    1121
    2225       1
     646     645     703    1128    1128    1128    1128    1128
    2226       1
     311     651     242     243     243     243     243     243
    2227       1
     798     799    1128    1234    1234    1234    1234    1234
    2228       1
     245     653     654    1121    1121    1121    1121    1121
    2229       1
     245     309     653    1121    1121    1121    1121    1121
    2230       1
     609     239     794    1129    1129    1129    1129    1129
$ ... 19300 like lines cut
*MAT_ELASTIC
$HMNAME MATERIAL         1material1                                             
$HWCOLOR MATERIAL         1       6                                             
$      MID       RHO         E        PR        DA        DB         K
         1                                                            
*SECTION_SHELL
$HMNAME PROPERTIES         1property1                                                                       
$    SECID    ELFORM      SHRF       NIP     PROPT        QR     ICOMP     SETYP
         1                             0                                        
$       T1        T2        T3        T4      NLOC     MAREA      IDOF    EDGSET
                                                                                
*END
